Circuit: * D:\facultad\instrumentos electronicos\InstrumentosElectronicos\TP1\linea.asc

.OP point found by inspection.
.step x=2e-009
.step x=1e-008
.step x=2e-008
.step x=5e-008
.step x=1e-007
.step x=2e-007
.step x=5e-007

Date: Mon Apr 09 13:48:01 2018
Total elapsed time: 0.098 seconds.

tnom = 27
temp = 27
method = modified trap
totiter = 2090
traniter = 2090
tranpoints = 1046
accept = 1044
rejected = 2
matrix size = 8
fillins = 3
solver = Normal
Matrix Compiler1:      21 opcodes  0.2/[0.1]/0.1
Matrix Compiler2: 600 bytes object code size  0.1/0.1/[0.1]

