Circuit: * D:\facultad\instrumentos electronicos\InstrumentosElectronicos\TP1\linea.asc

.OP point found by inspection.
.step x=2e-009
.step x=1e-008
.step x=2e-008
.step x=5e-008
.step x=1e-007
.step x=2e-007
.step x=5e-007

Date: Sat Apr 07 23:07:14 2018
Total elapsed time: 0.121 seconds.

tnom = 27
temp = 27
method = modified trap
totiter = 2108
traniter = 2108
tranpoints = 1055
accept = 1049
rejected = 6
matrix size = 8
fillins = 3
solver = Normal
Matrix Compiler1: 366 bytes object code size  0.1/0.1/[0.1]
Matrix Compiler2: off  [0.1]/0.2/0.1

